Circuit: * D:\dropbox\_DEV\_projects\drum-set\Draft4.asc


Date: Mon Jan 16 01:32:55 2017
Total elapsed time: 0.011 seconds.

tnom = 27
temp = 27
method = trap
totiter = 0
traniter = 0
tranpoints = 0
accept = 0
rejected = 0
matrix size = 4
fillins = 0
solver = Normal

