Circuit: * D:\dropbox\_DEV\_projects\drum-set\piezzo protection.asc

.OP point found by inspection.

Date: Fri Dec 22 01:07:51 2017
Total elapsed time: 0.237 seconds.

tnom = 27
temp = 27
method = modified trap
totiter = 38493
traniter = 38493
tranpoints = 10494
accept = 7700
rejected = 2794
matrix size = 5
fillins = 0
solver = Normal
Matrix Compiler1:      10 opcodes  0.1/[0.1]/0.1
Matrix Compiler2: 315 bytes object code size  0.1/0.1/[0.1]


