Circuit: * D:\dropbox\_DEV\_projects\drum-set\piezzo protection - Copy.asc

Direct Newton iteration for .op point succeeded.

Date: Thu Dec 21 18:57:21 2017
Total elapsed time: 0.121 seconds.

tnom = 27
temp = 27
method = modified trap
totiter = 2038
traniter = 2034
tranpoints = 1018
accept = 1018
rejected = 0
matrix size = 7
fillins = 0
solver = Normal
Matrix Compiler1:      13 opcodes  0.1/[0.1]/0.1
Matrix Compiler2: off  [0.0]/0.2/0.0


