Circuit: * D:\Dropbox\_DEV\_projects\drum-set\pwmDAC_preamp.asc

Direct Newton iteration for .op point succeeded.

Date: Thu Jan 19 07:04:17 2017
Total elapsed time: 0.247 seconds.

tnom = 27
temp = 27
method = trap
totiter = 8
traniter = 0
tranpoints = 0
accept = 0
rejected = 0
matrix size = 10
fillins = 0
solver = Normal
Matrix Compiler1:      26 opcodes
Matrix Compiler2: 740 bytes object code size

